Version 4
SHEET 1 2084 680
WIRE 736 -176 352 -176
WIRE 816 -176 736 -176
WIRE 960 -176 816 -176
WIRE 1296 -176 960 -176
WIRE 1632 -176 1296 -176
WIRE 736 -160 736 -176
WIRE 736 -160 656 -160
WIRE 960 -112 960 -176
WIRE 960 -112 912 -112
WIRE 656 -80 656 -160
WIRE 816 -80 816 -176
WIRE 848 -80 816 -80
WIRE 960 -64 912 -64
WIRE 1072 -64 960 -64
WIRE 1136 -64 1072 -64
WIRE 1216 -64 1136 -64
WIRE 736 -16 736 -160
WIRE 848 -16 736 -16
WIRE 848 16 736 16
WIRE 1072 16 1072 -64
WIRE 1216 16 1216 -64
WIRE 1136 32 1136 16
WIRE 656 80 656 -16
WIRE 736 80 736 16
WIRE 736 80 656 80
WIRE 1632 80 1632 -176
WIRE -128 96 -144 96
WIRE -32 96 -48 96
WIRE 64 96 -32 96
WIRE -144 128 -144 96
WIRE 64 144 0 144
WIRE 352 144 352 -176
WIRE 352 144 192 144
WIRE 736 144 736 80
WIRE 768 144 736 144
WIRE 816 144 768 144
WIRE 960 144 960 -64
WIRE 960 144 880 144
WIRE 1296 144 1296 -176
WIRE 1072 160 1072 80
WIRE 1136 160 1136 112
WIRE 1136 160 1072 160
WIRE 1216 160 1216 80
WIRE 1216 160 1136 160
WIRE -144 192 -144 160
WIRE 0 192 0 144
WIRE 0 192 -144 192
WIRE 288 192 192 192
WIRE 432 192 368 192
WIRE 528 192 432 192
WIRE 576 192 528 192
WIRE 592 192 576 192
WIRE 768 192 768 144
WIRE 832 192 768 192
WIRE -144 208 -144 192
WIRE 832 240 832 192
WIRE 528 272 528 256
WIRE 736 352 736 288
WIRE 832 352 832 304
WIRE 832 352 736 352
WIRE 432 368 432 272
WIRE 528 368 528 352
WIRE 528 368 432 368
WIRE 656 368 528 368
WIRE 736 368 736 352
WIRE 736 368 672 368
WIRE 736 400 736 368
WIRE 0 512 0 192
WIRE 176 512 0 512
WIRE 736 512 736 480
WIRE 736 512 256 512
WIRE 896 512 736 512
WIRE 1136 512 1136 160
WIRE 1136 512 976 512
WIRE 1296 512 1296 208
WIRE 1296 512 1136 512
WIRE 1440 512 1296 512
WIRE 1632 512 1632 208
WIRE 1632 512 1520 512
FLAG -32 96 in
FLAG -144 96 V1
FLAG -144 208 0
FLAG 576 192 base
FLAG 656 80 coletor
FLAG 672 368 emissor
DATAFLAG 432 -176 ""
DATAFLAG 448 192 ""
DATAFLAG 784 16 ""
DATAFLAG 16 96 ""
DATAFLAG -144 96 ""
SYMBOL MiniSyms4\\voltage- -144 144 R0
WINDOW 3 -357 17 Left 2
WINDOW 123 0 0 Left 2
WINDOW 39 0 0 Left 2
SYMATTR Value PULSE(0 5 0.5 1e-9 1e-9 0.5 1 0)
SYMATTR InstName V1
SYMBOL res -144 112 R270
WINDOW 0 32 56 VTop 2
WINDOW 3 0 56 VBottom 2
SYMATTR InstName R1
SYMATTR Value 330
SYMBOL res 272 496 R90
WINDOW 0 0 56 VBottom 2
WINDOW 3 32 56 VTop 2
SYMATTR InstName Rbug
SYMATTR Value 100Meg
SYMBOL res 448 176 M0
SYMATTR InstName R5
SYMATTR Value 10k
SYMBOL res 272 208 R270
WINDOW 0 32 56 VTop 2
WINDOW 3 0 56 VBottom 2
SYMATTR InstName R6
SYMATTR Value 100
SYMBOL Darlington\\NpnDarlington 608 144 R0
SYMATTR InstName U2
SYMATTR SpiceModel BCV27
SYMBOL diode 672 -16 R180
WINDOW 0 24 64 Left 2
WINDOW 3 24 0 Left 2
SYMATTR InstName D1
SYMATTR Value 1N4148
SYMBOL cap 512 192 R0
SYMATTR InstName C1
SYMATTR Value 100n
SYMBOL res 512 256 R0
SYMATTR InstName R3
SYMATTR Value 100
SYMBOL SBORKA\\OPTO\\4N40 96 160 R0
SYMATTR Value 4N25
SYMATTR InstName U3
SYMBOL MiniSyms4\\battery- 1632 192 R0
WINDOW 3 53 25 Center 2
WINDOW 0 27 -3 Left 2
SYMATTR Value 12
SYMATTR InstName Bat_Aux
SYMBOL EXTRA\\Relays\\rly_spdt0 880 -64 R0
SYMATTR SpiceModel ""
SYMATTR InstName U1
SYMATTR SpiceLine VNOM=12  RCOIL=380  VON=0.583  VOFF=0.167 RON=0.1  ROFF=1G  COFF=5.7p  LSER=5n  CCOUP=5.7p
SYMATTR SpiceLine2 TON=1m TOFF=1m  LCOIL=330m CCOIL=50n
SYMBOL ind 1120 16 R0
SYMATTR InstName L1
SYMATTR Value 10m
SYMBOL res 1120 -80 R0
SYMATTR InstName R2
SYMATTR Value 4
SYMBOL diode 1088 80 R180
WINDOW 0 24 64 Left 2
WINDOW 3 24 0 Left 2
SYMATTR InstName D2
SYMATTR Value MUR460
SYMBOL cap 1200 16 R0
SYMATTR InstName C2
SYMATTR Value 20p
SYMBOL res 1616 64 R0
SYMATTR InstName R8
SYMATTR Value 0.2
SYMBOL res 992 496 R90
WINDOW 0 0 56 VBottom 2
WINDOW 3 32 56 VTop 2
SYMATTR InstName Rtrilha
SYMATTR Value 0.1
SYMBOL res 1536 496 R90
WINDOW 0 0 56 VBottom 2
WINDOW 3 32 56 VTop 2
SYMATTR InstName Rfio
SYMATTR Value 1
SYMBOL cap 880 128 R90
WINDOW 0 0 32 VBottom 2
WINDOW 3 32 32 VTop 2
SYMATTR InstName C3
SYMATTR Value 20p
SYMBOL cap 1280 144 R0
SYMATTR InstName C4
SYMATTR Value 1000u
SYMBOL diode 848 304 R180
WINDOW 0 24 64 Left 2
WINDOW 3 24 0 Left 2
SYMATTR InstName D3
SYMATTR Value 1N4148
SYMBOL res 720 384 R0
SYMATTR InstName R4
SYMATTR Value 20p
TEXT -392 240 Left 2 !.tran 0 20 0
TEXT -392 264 Left 2 !.include 4N25.sub
TEXT -392 288 Left 2 !.include BCV27.PRM
TEXT -392 312 Left 2 !.include relay.lib
TEXT -384 336 Left 0 ;Parameters\n-----------------\nNominal Voltage  VNOM=5  \nCoil Resistance   RCOIL=150\nContact Resistance  RON=0.1 \nOff Isolation  ROFF=1G\nSwitiching Time  TON=5m \nMinimum Coil Voltage On-Ratio  VON=0.7 \nMaximum Coil Voltage Off-Ratio  VOFF=0.3 \nCoil Inductance  LCOIL=0.15 \nCoil Capacitance CCOIL=1f \nContact Off Capacitance  COFF=1f \nContact Coupling Capacitance  CCOUP=1f\nContact Series Inductance  Lser=1p
